Version 4
SHEET 1 1028 680
WIRE 736 -176 224 -176
WIRE 1024 -176 736 -176
WIRE 224 -144 224 -176
WIRE 736 -80 736 -176
WIRE 224 128 224 96
WIRE 416 128 224 128
WIRE 528 128 496 128
WIRE 560 128 528 128
WIRE 656 128 624 128
WIRE 736 128 736 -16
WIRE 736 128 656 128
WIRE 816 128 736 128
WIRE 880 128 816 128
WIRE 1024 128 1024 -176
WIRE 1024 128 960 128
WIRE 528 240 528 128
WIRE 560 240 528 240
WIRE 656 240 656 128
WIRE 656 240 624 240
WIRE 224 368 224 128
WIRE 640 368 224 368
WIRE 816 368 816 128
WIRE 816 368 720 368
SYMBOL res2 560 144 R270
WINDOW 0 32 32 VTop 2
WINDOW 3 0 32 VBottom 2
SYMATTR InstName R1
SYMATTR Value 82kOhm
SYMBOL res2 560 256 R270
WINDOW 0 32 32 VTop 2
WINDOW 3 0 32 VBottom 2
SYMATTR InstName R2
SYMATTR Value 82kOhm
SYMBOL res2 720 -80 R0
SYMATTR InstName R3
SYMATTR Value 47kOhm
SYMBOL voltage 864 128 R270
WINDOW 0 32 56 VTop 2
WINDOW 3 -32 56 VBottom 2
SYMATTR InstName AC
SYMATTR Value Power Source
SYMBOL Misc/EuropeanResistor 512 112 R90
WINDOW 0 5 56 VBottom 2
WINDOW 3 27 56 VTop 2
SYMATTR InstName Relay_dim
SYMATTR Value ""
SYMBOL Misc/EuropeanResistor 736 352 R90
WINDOW 0 5 56 VBottom 2
WINDOW 3 27 56 VTop 2
SYMATTR InstName Relay_transparent
SYMATTR Value ""
SYMBOL SpecialFunctions/2ndOrdComplexzero 208 16 R270
SYMATTR InstName Panel
SYMATTR Value ""
